/*--------------------------------*- C++ -*----------------------------------*\
  =========                 |
  \\      /  F ield         | OpenFOAM: The Open Source CFD Toolbox
   \\    /   O peration     | Website:  https://openfoam.org
    \\  /    A nd           | Version:  6
     \\/     M anipulation  |
\*---------------------------------------------------------------------------*/
FoamFile
{
    version     2.0;
    format      ascii;
    class       volScalarField;
    object      p;
}
// * * * * * * * * * * * * * * * * * * * * * * * * * * * * * * * * * * * * * //

dimensions [0 2 -2 0 0 0 0];

internalField uniform 0;

boundaryField
{
   top
    {
      type symmetryPlane;
    }

     bottom
    {
    type symmetryPlane;
    }

    inlet
    {
      type freestreamPressure;
      freestreamValue $internalField;
    }
 
   outlet
   {
      type freestreamPressure;
      freestreamValue $internalField;
    }
 
   frontAndBack
   {
      type empty;
   }

   cylinder
   {
   type zeroGradient;
   }
}

// ************************************************************************* //
